!-Generator IDFEditor 1.42
!-Option SortedOrder

!-NOTE: All comments with '!-' are ignored by the IDFEditor and are generated automatically.
!-      Use '!' comments if they need to be retained when using the IDFEditor.


!-   ===========  ALL OBJECTS IN CLASS: VERSION ===========

Version,
    7.1;                     !- Version Identifier


!-   ===========  ALL OBJECTS IN CLASS: SIMULATIONCONTROL ===========

SimulationControl,
    Yes,                     !- Do Zone Sizing Calculation
    Yes,                     !- Do System Sizing Calculation
    No,                      !- Do Plant Sizing Calculation
    Yes,                     !- Run Simulation for Sizing Periods
    Yes;                     !- Run Simulation for Weather File Run Periods


!-   ===========  ALL OBJECTS IN CLASS: BUILDING ===========

Building,
    Unit 5,                  !- Name
    0.0,                     !- North Axis {deg}
    City,                    !- Terrain
    0.04,                    !- Loads Convergence Tolerance Value
    0.4,                     !- Temperature Convergence Tolerance Value {deltaC}
    FullInteriorAndExterior, !- Solar Distribution
    25,                      !- Maximum Number of Warmup Days
    ;                        !- Minimum Number of Warmup Days


!-   ===========  ALL OBJECTS IN CLASS: TIMESTEP ===========

Timestep,
    4;                       !- Number of Timesteps per Hour


!-   ===========  ALL OBJECTS IN CLASS: SITE:LOCATION ===========

Site:Location,
    Washington Dc Reagan Ap_VA_USA Design_Conditions,  !- Name
    38.87,                   !- Latitude {deg}
    -77.03,                  !- Longitude {deg}
    -5.0,                    !- Time Zone {hr}
    3.00;                    !- Elevation {m}


!-   ===========  ALL OBJECTS IN CLASS: SIZINGPERIOD:DESIGNDAY ===========

SizingPeriod:DesignDay,
    Washington Dc Reagan Ap Ann Htg 99.6% Condns DB,  !- Name
    1,                       !- Month
    21,                      !- Day of Month
    WinterDesignDay,         !- Day Type
    -8.7,                    !- Maximum Dry-Bulb Temperature {C}
    0.0,                     !- Daily Dry-Bulb Temperature Range {deltaC}
    DefaultMultipliers,      !- Dry-Bulb Temperature Range Modifier Type
    ,                        !- Dry-Bulb Temperature Range Modifier Schedule Name
    Wetbulb,                 !- Humidity Condition Type
    -8.7,                    !- Wetbulb or DewPoint at Maximum Dry-Bulb {C}
    ,                        !- Humidity Condition Day Schedule Name
    ,                        !- Humidity Ratio at Maximum Dry-Bulb {kgWater/kgDryAir}
    ,                        !- Enthalpy at Maximum Dry-Bulb {J/kg}
    ,                        !- Daily Wet-Bulb Temperature Range {deltaC}
    101289.,                 !- Barometric Pressure {Pa}
    5.2,                     !- Wind Speed {m/s}
    330,                     !- Wind Direction {deg}
    No,                      !- Rain Indicator
    No,                      !- Snow Indicator
    No,                      !- Daylight Saving Time Indicator
    ASHRAEClearSky,          !- Solar Model Indicator
    ,                        !- Beam Solar Day Schedule Name
    ,                        !- Diffuse Solar Day Schedule Name
    ,                        !- ASHRAE Clear Sky Optical Depth for Beam Irradiance (taub) {dimensionless}
    ,                        !- ASHRAE Clear Sky Optical Depth for Diffuse Irradiance (taud) {dimensionless}
    0.00;                    !- Sky Clearness

SizingPeriod:DesignDay,
    Washington Dc Reagan Ap Ann Clg .4% Condns Enth=>MDB,  !- Name
    7,                       !- Month
    21,                      !- Day of Month
    SummerDesignDay,         !- Day Type
    31.9,                    !- Maximum Dry-Bulb Temperature {C}
    8.9,                     !- Daily Dry-Bulb Temperature Range {deltaC}
    DefaultMultipliers,      !- Dry-Bulb Temperature Range Modifier Type
    ,                        !- Dry-Bulb Temperature Range Modifier Schedule Name
    Enthalpy,                !- Humidity Condition Type
    ,                        !- Wetbulb or DewPoint at Maximum Dry-Bulb {C}
    ,                        !- Humidity Condition Day Schedule Name
    ,                        !- Humidity Ratio at Maximum Dry-Bulb {kgWater/kgDryAir}
    80000.0,                 !- Enthalpy at Maximum Dry-Bulb {J/kg}
    ,                        !- Daily Wet-Bulb Temperature Range {deltaC}
    101289.,                 !- Barometric Pressure {Pa}
    4.6,                     !- Wind Speed {m/s}
    170,                     !- Wind Direction {deg}
    No,                      !- Rain Indicator
    No,                      !- Snow Indicator
    No,                      !- Daylight Saving Time Indicator
    ASHRAETau,               !- Solar Model Indicator
    ,                        !- Beam Solar Day Schedule Name
    ,                        !- Diffuse Solar Day Schedule Name
    0.563,                   !- ASHRAE Clear Sky Optical Depth for Beam Irradiance (taub) {dimensionless}
    1.747;                   !- ASHRAE Clear Sky Optical Depth for Diffuse Irradiance (taud) {dimensionless}


!-   ===========  ALL OBJECTS IN CLASS: RUNPERIOD ===========

RunPeriod,
    OS:RunPeriod 1,          !- Name
    1,                       !- Begin Month
    1,                       !- Begin Day of Month
    12,                      !- End Month
    31,                      !- End Day of Month
    Thursday,                !- Day of Week for Start Day
    Yes,                     !- Use Weather File Holidays and Special Days
    Yes,                     !- Use Weather File Daylight Saving Period
    Yes,                     !- Apply Weekend Holiday Rule
    Yes,                     !- Use Weather File Rain Indicators
    Yes,                     !- Use Weather File Snow Indicators
    1;                       !- Number of Times Runperiod to be Repeated

RunPeriod,
    Winter Run Period,       !- Name
    1,                       !- Begin Month
    1,                       !- Begin Day of Month
    3,                       !- End Month
    31,                      !- End Day of Month
    Thursday,                !- Day of Week for Start Day
    Yes,                     !- Use Weather File Holidays and Special Days
    Yes,                     !- Use Weather File Daylight Saving Period
    Yes,                     !- Apply Weekend Holiday Rule
    Yes,                     !- Use Weather File Rain Indicators
    Yes,                     !- Use Weather File Snow Indicators
    1;                       !- Number of Times Runperiod to be Repeated

RunPeriod,
    Summer Run Period,       !- Name
    6,                       !- Begin Month
    1,                       !- Begin Day of Month
    8,                       !- End Month
    31,                      !- End Day of Month
    Thursday,                !- Day of Week for Start Day
    Yes,                     !- Use Weather File Holidays and Special Days
    Yes,                     !- Use Weather File Daylight Saving Period
    Yes,                     !- Apply Weekend Holiday Rule
    Yes,                     !- Use Weather File Rain Indicators
    Yes,                     !- Use Weather File Snow Indicators
    1;                       !- Number of Times Runperiod to be Repeated


!-   ===========  ALL OBJECTS IN CLASS: RUNPERIODCONTROL:SPECIALDAYS ===========

RunPeriodControl:SpecialDays,
    New Years Day,           !- Name
    January 1,               !- Start Date
    1,                       !- Duration {days}
    Holiday;                 !- Special Day Type

RunPeriodControl:SpecialDays,
    Veterans Day,            !- Name
    November 11,             !- Start Date
    1,                       !- Duration {days}
    Holiday;                 !- Special Day Type

RunPeriodControl:SpecialDays,
    Christmas,               !- Name
    December 25,             !- Start Date
    1,                       !- Duration {days}
    Holiday;                 !- Special Day Type

RunPeriodControl:SpecialDays,
    Independence Day,        !- Name
    July 4,                  !- Start Date
    1,                       !- Duration {days}
    Holiday;                 !- Special Day Type

RunPeriodControl:SpecialDays,
    MLK Day,                 !- Name
    3rd Monday in January,   !- Start Date
    1,                       !- Duration {days}
    Holiday;                 !- Special Day Type

RunPeriodControl:SpecialDays,
    Presidents Day,          !- Name
    3rd Monday in February,  !- Start Date
    1,                       !- Duration {days}
    Holiday;                 !- Special Day Type

RunPeriodControl:SpecialDays,
    Memorial Day,            !- Name
    Last Monday in May,      !- Start Date
    1,                       !- Duration {days}
    Holiday;                 !- Special Day Type

RunPeriodControl:SpecialDays,
    Labor Day,               !- Name
    1st Monday in September, !- Start Date
    1,                       !- Duration {days}
    Holiday;                 !- Special Day Type

RunPeriodControl:SpecialDays,
    Columbus Day,            !- Name
    2nd Monday in October,   !- Start Date
    1,                       !- Duration {days}
    Holiday;                 !- Special Day Type

RunPeriodControl:SpecialDays,
    Thanksgiving,            !- Name
    4th Thursday in November,!- Start Date
    1,                       !- Duration {days}
    Holiday;                 !- Special Day Type


!-   ===========  ALL OBJECTS IN CLASS: RUNPERIODCONTROL:DAYLIGHTSAVINGTIME ===========

! Daylight Saving Period in US
RunPeriodControl:DaylightSavingTime,
    2nd Sunday in March,     !- Start Date
    1st Sunday in November;  !- End Date


!-   ===========  ALL OBJECTS IN CLASS: SCHEDULETYPELIMITS ===========

ScheduleTypeLimits,
    Any Number;              !- Name

ScheduleTypeLimits,
    Fraction,                !- Name
    0.0,                     !- Lower Limit Value
    1.0,                     !- Upper Limit Value
    CONTINUOUS;              !- Numeric Type

ScheduleTypeLimits,
    Temperature,             !- Name
    -60,                     !- Lower Limit Value
    200,                     !- Upper Limit Value
    CONTINUOUS;              !- Numeric Type

ScheduleTypeLimits,
    On/Off,                  !- Name
    0,                       !- Lower Limit Value
    1,                       !- Upper Limit Value
    DISCRETE;                !- Numeric Type

ScheduleTypeLimits,
    Control Type,            !- Name
    0,                       !- Lower Limit Value
    4,                       !- Upper Limit Value
    DISCRETE;                !- Numeric Type

ScheduleTypeLimits,
    Humidity,                !- Name
    10,                      !- Lower Limit Value
    90,                      !- Upper Limit Value
    CONTINUOUS;              !- Numeric Type

ScheduleTypeLimits,
    Number;                  !- Name

!
! -------------------------------------------------------------
! New objects created from ExpandObjects
! -------------------------------------------------------------
!
ScheduleTypeLimits,
    HVACTemplate Any Number; !- Name


!-   ===========  ALL OBJECTS IN CLASS: SCHEDULE:COMPACT ===========

Schedule:Compact,
    Bedroom Occ,             !- Name
    Fraction,                !- Schedule Type Limits Name
    Through: 12/31,          !- Field 1
    For: AllDays,            !- Field 2
    Until: 07:00,            !- Field 3
    1,                       !- Field 4
    Until: 08:00,            !- Field 5
    .4,                      !- Field 6
    Until: 09:00,            !- Field 7
    0,                       !- Field 8
    Until: 19:00,            !- Field 9
    0,                       !- Field 10
    Until: 20:00,            !- Field 11
    .1,                      !- Field 12
    Until: 21:00,            !- Field 13
    .2,                      !- Field 14
    Until: 22:00,            !- Field 15
    .5,                      !- Field 16
    Until: 24:00,            !- Field 17
    1;                       !- Field 18

Schedule:Compact,
    Activity Living,         !- Name
    Any Number,              !- Schedule Type Limits Name
    Through: 12/31,          !- Field 1
    For: AllDays,            !- Field 2
    Until: 24:00,            !- Field 3
    108;                     !- Field 4

Schedule:Compact,
    Activity Bath,           !- Name
    Any Number,              !- Schedule Type Limits Name
    Through: 12/31,          !- Field 1
    For: AllDays,            !- Field 2
    Until: 24:00,            !- Field 3
    180;                     !- Field 4

Schedule:Compact,
    Activity Bedroom,        !- Name
    Any Number,              !- Schedule Type Limits Name
    Through: 12/31,          !- Field 1
    For: AllDays,            !- Field 2
    Until: 24:00,            !- Field 3
    72;                      !- Field 4

Schedule:Compact,
    Unit Heating Schedule,   !- Name
    Temperature,             !- Schedule Type Limits Name
    Through: 12/31,          !- Field 1
    For: Weekdays,           !- Field 2
    Until: 06:30,            !- Field 3
    16,                      !- Field 4
    Until: 08:30,            !- Field 5
    20,                      !- Field 6
    Until: 17:00,            !- Field 7
    16,                      !- Field 8
    Until: 23:00,            !- Field 9
    20,                      !- Field 10
    Until: 24:00,            !- Field 11
    18,                      !- Field 12
    For: AllOtherDays,       !- Field 13
    Until: 06:30,            !- Field 14
    16,                      !- Field 15
    Until: 23:00,            !- Field 16
    20,                      !- Field 17
    Until: 24:00,            !- Field 18
    16;                      !- Field 19

Schedule:Compact,
    Bedroom Lighting Sch,    !- Name
    Fraction,                !- Schedule Type Limits Name
    Through: 12/31,          !- Field 1
    For: AllDays,            !- Field 2
    Until: 07:00,            !- Field 3
    0,                       !- Field 4
    Until: 09:00,            !- Field 5
    1,                       !- Field 6
    Until: 19:00,            !- Field 7
    0,                       !- Field 8
    Until: 22:00,            !- Field 9
    1,                       !- Field 10
    Until: 24:00,            !- Field 11
    0;                       !- Field 12

Schedule:Compact,
    Unit Cooling Schedule,   !- Name
    Temperature,             !- Schedule Type Limits Name
    Through: 12/31,          !- Field 1
    For: Weekdays,           !- Field 2
    Until: 06:30,            !- Field 3
    28,                      !- Field 4
    Until: 08:30,            !- Field 5
    25,                      !- Field 6
    Until: 17:00,            !- Field 7
    30,                      !- Field 8
    Until: 23:00,            !- Field 9
    25,                      !- Field 10
    Until: 24:00,            !- Field 11
    28,                      !- Field 12
    For: AllOtherDays,       !- Field 13
    Until: 06:30,            !- Field 14
    28,                      !- Field 15
    Until: 23:00,            !- Field 16
    25,                      !- Field 17
    Until: 24:00,            !- Field 18
    28;                      !- Field 19

Schedule:Compact,
    Building Corridor Temp Schedule,  !- Name
    Temperature,             !- Schedule Type Limits Name
    Through: 12/31,          !- Field 1
    For: AllDays,            !- Field 2
    Until: 24:00,            !- Field 3
    20;                      !- Field 4

Schedule:Compact,
    Building Shafts Temp Schedule,  !- Name
    Temperature,             !- Schedule Type Limits Name
    Through: 12/31,          !- Field 1
    For: AllDays,            !- Field 2
    Until: 24:00,            !- Field 3
    20;                      !- Field 4

Schedule:Compact,
    Living Occ,              !- Name
    Fraction,                !- Schedule Type Limits Name
    Through: 12/31,          !- Field 1
    For: Weekdays,           !- Field 2
    Until: 08:00,            !- Field 3
    0,                       !- Field 4
    Until: 09:00,            !- Field 5
    .4,                      !- Field 6
    Until: 18:00,            !- Field 7
    0,                       !- Field 8
    Until: 19:00,            !- Field 9
    1,                       !- Field 10
    Until: 20:00,            !- Field 11
    .9,                      !- Field 12
    Until: 21:00,            !- Field 13
    .8,                      !- Field 14
    Until: 24:00,            !- Field 15
    0,                       !- Field 16
    For: AllOtherDays,       !- Field 17
    Until: 08:00,            !- Field 18
    0,                       !- Field 19
    Until: 09:00,            !- Field 20
    .9,                      !- Field 21
    Until: 13:00,            !- Field 22
    1,                       !- Field 23
    Until: 14:00,            !- Field 24
    .4,                      !- Field 25
    Until: 19:00,            !- Field 26
    0,                       !- Field 27
    Until: 20:00,            !- Field 28
    .5,                      !- Field 29
    Until: 21:00,            !- Field 30
    .8,                      !- Field 31
    Until: 24:00,            !- Field 32
    0;                       !- Field 33

Schedule:Compact,
    Bathroom Occ,            !- Name
    Fraction,                !- Schedule Type Limits Name
    Through: 12/31,          !- Field 1
    For: Weekdays,           !- Field 2
    Until: 07:00,            !- Field 3
    0,                       !- Field 4
    Until: 08:00,            !- Field 5
    .6,                      !- Field 6
    Until: 21:00,            !- Field 7
    0,                       !- Field 8
    Until: 22:00,            !- Field 9
    .5,                      !- Field 10
    Until: 24:00,            !- Field 11
    0,                       !- Field 12
    For: AllOtherDays,       !- Field 13
    Until: 07:00,            !- Field 14
    0,                       !- Field 15
    Until: 08:00,            !- Field 16
    .6,                      !- Field 17
    Until: 13:00,            !- Field 18
    0,                       !- Field 19
    Until: 14:00,            !- Field 20
    .1,                      !- Field 21
    Until: 21:00,            !- Field 22
    0,                       !- Field 23
    Until: 22:00,            !- Field 24
    .5,                      !- Field 25
    Until: 24:00,            !- Field 26
    0;                       !- Field 27

Schedule:Compact,
    Bathroom Lighting Sch,   !- Name
    Fraction,                !- Schedule Type Limits Name
    Through: 12/31,          !- Field 1
    For: Weekdays,           !- Field 2
    Until: 07:00,            !- Field 3
    0,                       !- Field 4
    Until: 08:00,            !- Field 5
    1,                       !- Field 6
    Until: 21:00,            !- Field 7
    0,                       !- Field 8
    Until: 22:00,            !- Field 9
    1,                       !- Field 10
    Until: 24:00,            !- Field 11
    0,                       !- Field 12
    For: AllOtherDays,       !- Field 13
    Until: 07:00,            !- Field 14
    0,                       !- Field 15
    Until: 08:00,            !- Field 16
    1,                       !- Field 17
    Until: 13:00,            !- Field 18
    0,                       !- Field 19
    Until: 14:00,            !- Field 20
    1,                       !- Field 21
    Until: 21:00,            !- Field 22
    0,                       !- Field 23
    Until: 22:00,            !- Field 24
    1,                       !- Field 25
    Until: 24:00,            !- Field 26
    0;                       !- Field 27

Schedule:Compact,
    Living Lighting Sch,     !- Name
    Fraction,                !- Schedule Type Limits Name
    Through: 12/31,          !- Field 1
    For: Weekdays,           !- Field 2
    Until: 08:00,            !- Field 3
    0,                       !- Field 4
    Until: 09:00,            !- Field 5
    1,                       !- Field 6
    Until: 18:00,            !- Field 7
    0,                       !- Field 8
    Until: 21:00,            !- Field 9
    1,                       !- Field 10
    Until: 24:00,            !- Field 11
    0,                       !- Field 12
    For: AllOtherDays,       !- Field 13
    Until: 08:00,            !- Field 14
    0,                       !- Field 15
    Until: 10:00,            !- Field 16
    1,                       !- Field 17
    Until: 13:00,            !- Field 18
    .5,                      !- Field 19
    Until: 19:00,            !- Field 20
    0,                       !- Field 21
    Until: 21:00,            !- Field 22
    1,                       !- Field 23
    Until: 24:00,            !- Field 24
    0;                       !- Field 25

Schedule:Compact,
    Always On,               !- Name
    Fraction,                !- Schedule Type Limits Name
    Through: 12/31,          !- Field 1
    For: Alldays,            !- Field 2
    Until: 24:00,            !- Field 3
    1;                       !- Field 4

Schedule:Compact,
    Always Off,              !- Name
    Fraction,                !- Schedule Type Limits Name
    Through: 12/31,          !- Field 1
    For: Alldays,            !- Field 2
    Until: 24:00,            !- Field 3
    0;                       !- Field 4

Schedule:Compact,
    HVACTemplate-Always 1,   !- Name
    HVACTemplate Any Number, !- Schedule Type Limits Name
    Through: 12/31,          !- Field 1
    For: AllDays,            !- Field 2
    Until: 24:00,            !- Field 3
    1;                       !- Field 4

Schedule:Compact,
    HVACTemplate-Always 4,   !- Name
    HVACTemplate Any Number, !- Schedule Type Limits Name
    Through: 12/31,          !- Field 1
    For: AllDays,            !- Field 2
    Until: 24:00,            !- Field 3
    4;                       !- Field 4


!-   ===========  ALL OBJECTS IN CLASS: MATERIAL ===========

Material,
    F08 Metal surface,       !- Name
    Smooth,                  !- Roughness
    0.0008,                  !- Thickness {m}
    45.28,                   !- Conductivity {W/m-K}
    7824,                    !- Density {kg/m3}
    500;                     !- Specific Heat {J/kg-K}

Material,
    I01 25mm insulation board,  !- Name
    MediumRough,             !- Roughness
    0.0254,                  !- Thickness {m}
    0.03,                    !- Conductivity {W/m-K}
    43,                      !- Density {kg/m3}
    1210;                    !- Specific Heat {J/kg-K}

Material,
    I02 50mm insulation board,  !- Name
    MediumRough,             !- Roughness
    0.0508,                  !- Thickness {m}
    0.03,                    !- Conductivity {W/m-K}
    43,                      !- Density {kg/m3}
    1210;                    !- Specific Heat {J/kg-K}

Material,
    G01a 19mm gypsum board,  !- Name
    MediumSmooth,            !- Roughness
    0.019,                   !- Thickness {m}
    0.16,                    !- Conductivity {W/m-K}
    800,                     !- Density {kg/m3}
    1090;                    !- Specific Heat {J/kg-K}

Material,
    M11 100mm lightweight concrete,  !- Name
    MediumRough,             !- Roughness
    0.1016,                  !- Thickness {m}
    0.53,                    !- Conductivity {W/m-K}
    1280,                    !- Density {kg/m3}
    840;                     !- Specific Heat {J/kg-K}

Material,
    F16 Acoustic tile,       !- Name
    MediumSmooth,            !- Roughness
    0.0191,                  !- Thickness {m}
    0.06,                    !- Conductivity {W/m-K}
    368,                     !- Density {kg/m3}
    590;                     !- Specific Heat {J/kg-K}

Material,
    M01 100mm brick,         !- Name
    MediumRough,             !- Roughness
    0.1016,                  !- Thickness {m}
    0.89,                    !- Conductivity {W/m-K}
    1920,                    !- Density {kg/m3}
    790;                     !- Specific Heat {J/kg-K}

Material,
    M15 200mm heavyweight concrete,  !- Name
    MediumRough,             !- Roughness
    0.2032,                  !- Thickness {m}
    1.95,                    !- Conductivity {W/m-K}
    2240,                    !- Density {kg/m3}
    900;                     !- Specific Heat {J/kg-K}

Material,
    M05 200mm concrete block,!- Name
    MediumRough,             !- Roughness
    0.2032,                  !- Thickness {m}
    1.11,                    !- Conductivity {W/m-K}
    800,                     !- Density {kg/m3}
    920;                     !- Specific Heat {J/kg-K}

Material,
    G05 25mm wood,           !- Name
    MediumSmooth,            !- Roughness
    0.0254,                  !- Thickness {m}
    0.15,                    !- Conductivity {W/m-K}
    608,                     !- Density {kg/m3}
    1630;                    !- Specific Heat {J/kg-K}

Material,
    16mm Gypsum Board,       !- Name
    MediumSmooth,            !- Roughness
    0.016,                   !- Thickness {m}
    0.16,                    !- Conductivity {W/m-K}
    801,                     !- Density {kg/m3}
    837;                     !- Specific Heat {J/kg-K}

Material,
    64mm Metal Stud w/Insul.,!- Name
    MediumRough,             !- Roughness
    0.064,                   !- Thickness {m}
    0.04,                    !- Conductivity {W/m-K}
    256,                     !- Density {kg/m3}
    837;                     !- Specific Heat {J/kg-K}

Material,
    92mm Metal Stud w/Insul.,!- Name
    MediumRough,             !- Roughness
    0.092,                   !- Thickness {m}
    0.04,                    !- Conductivity {W/m-K}
    256,                     !- Density {kg/m3}
    837;                     !- Specific Heat {J/kg-K}

Material,
    610mm HW concrete,       !- Name
    MediumRough,             !- Roughness
    0.61,                    !- Thickness {m}
    0.62,                    !- Conductivity {W/m-K}
    2240,                    !- Density {kg/m3}
    837;                     !- Specific Heat {J/kg-K}

Material,
    38mm Metal Stud w/Insul.,!- Name
    MediumRough,             !- Roughness
    0.038,                   !- Thickness {m}
    0.04,                    !- Conductivity {W/m-K}
    256,                     !- Density {kg/m3}
    837;                     !- Specific Heat {J/kg-K}

Material,
    25mm Gypsum Shaft Board, !- Name
    MediumSmooth,            !- Roughness
    0.025,                   !- Thickness {m}
    0.16,                    !- Conductivity {W/m-K}
    801,                     !- Density {kg/m3}
    837;                     !- Specific Heat {J/kg-K}

Material,
    191mm HW concrete,       !- Name
    MediumRough,             !- Roughness
    0.191,                   !- Thickness {m}
    0.62,                    !- Conductivity {W/m-K}
    2240,                    !- Density {kg/m3}
    837;                     !- Specific Heat {J/kg-K}

Material,
    19mm Wood Flooring,      !- Name
    MediumSmooth,            !- Roughness
    0.0019,                  !- Thickness {m}
    0.15,                    !- Conductivity {W/m-K}
    608,                     !- Density {kg/m3}
    1630;                    !- Specific Heat {J/kg-K}

Material,
    44mm Wood Door,          !- Name
    MediumSmooth,            !- Roughness
    0.0254,                  !- Thickness {m}
    0.15,                    !- Conductivity {W/m-K}
    608,                     !- Density {kg/m3}
    1630;                    !- Specific Heat {J/kg-K}

Material,
    3mm Floor Underlayment,  !- Name
    MediumSmooth,            !- Roughness
    0.003,                   !- Thickness {m}
    0.29,                    !- Conductivity {W/m-K}
    976,                     !- Density {kg/m3}
    2001;                    !- Specific Heat {J/kg-K}


!-   ===========  ALL OBJECTS IN CLASS: MATERIAL:AIRGAP ===========

Material:AirGap,
    F04 Wall air space resistance,  !- Name
    0.15;                    !- Thermal Resistance {m2-K/W}

Material:AirGap,
    F05 Ceiling air space resistance,  !- Name
    0.18;                    !- Thermal Resistance {m2-K/W}


!-   ===========  ALL OBJECTS IN CLASS: WINDOWMATERIAL:SIMPLEGLAZINGSYSTEM ===========

WindowMaterial:SimpleGlazingSystem,
    VRE 1-46,                !- Name
    1.6,                     !- U-Factor {W/m2-K}
    0.28,                    !- Solar Heat Gain Coefficient
    0.43;                    !- Visible Transmittance


!-   ===========  ALL OBJECTS IN CLASS: CONSTRUCTION ===========

Construction,
    Exterior Floor,          !- Name
    19mm Wood Flooring,      !- Outside Layer
    191mm HW concrete;       !- Layer 2

Construction,
    Interior Floor,          !- Name
    19mm Wood Flooring,      !- Outside Layer
    3mm Floor Underlayment,  !- Layer 2
    191mm HW concrete,       !- Layer 3
    64mm Metal Stud w/Insul.,!- Layer 4
    16mm Gypsum Board;       !- Layer 5

Construction,
    Exterior Wall,           !- Name
    F08 Metal surface,       !- Outside Layer
    I01 25mm insulation board,  !- Layer 2
    F08 Metal surface;       !- Layer 3

Construction,
    Interior Wall,           !- Name
    16mm Gypsum Board,       !- Outside Layer
    92mm Metal Stud w/Insul.,!- Layer 2
    16mm Gypsum Board;       !- Layer 3

Construction,
    Exterior Roof,           !- Name
    19mm Wood Flooring,      !- Outside Layer
    191mm HW concrete;       !- Layer 2

Construction,
    Interior Ceiling,        !- Name
    19mm Wood Flooring,      !- Outside Layer
    3mm Floor Underlayment,  !- Layer 2
    191mm HW concrete,       !- Layer 3
    64mm Metal Stud w/Insul.,!- Layer 4
    16mm Gypsum Board;       !- Layer 5

Construction,
    Exterior Window,         !- Name
    VRE 1-46;                !- Outside Layer

Construction,
    Interior Window,         !- Name
    VRE 1-46;                !- Outside Layer

Construction,
    Exterior Door,           !- Name